%chk=FMN.chk
%mem=64GB
%nprocshared=16
#p opt=(tight) scf=qc B3LYP/6-31g(d) pop=(mk,saveesp)

FMN of YtvA (2PR5)

0 1
 N(PDBName=N1,ResName=FMN,ResNum=500_A)               24.70400000   32.67800000   15.82500000
 C(PDBName=C2,ResName=FMN,ResNum=500_A)               24.30400000   33.36000000   14.69900000
 O(PDBName=O2,ResName=FMN,ResNum=500_A)               24.47600000   34.57900000   14.64200000
 N(PDBName=N3,ResName=FMN,ResNum=500_A)               23.71800000   32.68800000   13.64100000
 C(PDBName=C4,ResName=FMN,ResNum=500_A)               23.48500000   31.32500000   13.66600000
 O(PDBName=O4,ResName=FMN,ResNum=500_A)               22.94300000   30.76600000   12.69900000
 C(PDBName=C4A,ResName=FMN,ResNum=500_A)              23.87500000   30.62600000   14.81100000
 N(PDBName=N5,ResName=FMN,ResNum=500_A)               23.67300000   29.26500000   14.89900000
 C(PDBName=C5A,ResName=FMN,ResNum=500_A)              24.04900000   28.58400000   16.05100000
 C(PDBName=C6,ResName=FMN,ResNum=500_A)               23.83400000   27.21500000   16.13800000
 C(PDBName=C7,ResName=FMN,ResNum=500_A)               24.20100000   26.49800000   17.28000000
 C(PDBName=C7M,ResName=FMN,ResNum=500_A)              23.85500000   25.02600000   17.34900000
 C(PDBName=C8,ResName=FMN,ResNum=500_A)               24.81900000   27.16400000   18.34200000
 C(PDBName=C8M,ResName=FMN,ResNum=500_A)              25.21200000   26.41300000   19.58500000
 C(PDBName=C9,ResName=FMN,ResNum=500_A)               25.03800000   28.54800000   18.26500000
 C(PDBName=C9A,ResName=FMN,ResNum=500_A)              24.66100000   29.26800000   17.11600000
 N(PDBName=N10,ResName=FMN,ResNum=500_A)              24.86500000   30.64000000   17.01400000
 C(PDBName=C10,ResName=FMN,ResNum=500_A)              24.47800000   31.32300000   15.87400000
 C(PDBName=C1P,ResName=FMN,ResNum=500_A)              25.27900000   31.42900000   18.22700000
 C(PDBName=C2P,ResName=FMN,ResNum=500_A)              26.78800000   31.65100000   18.35600000
 O(PDBName=O2P,ResName=FMN,ResNum=500_A)              27.45600000   30.44400000   18.04300000
 C(PDBName=C3P,ResName=FMN,ResNum=500_A)              27.18200000   32.11400000   19.77200000
 O(PDBName=O3P,ResName=FMN,ResNum=500_A)              26.71000000   31.16300000   20.69400000
 C(PDBName=C4P,ResName=FMN,ResNum=500_A)              26.63800000   33.50400000   20.12100000
 O(PDBName=O4P,ResName=FMN,ResNum=500_A)              27.19100000   34.45400000   19.22800000
 C(PDBName=C5P,ResName=FMN,ResNum=500_A)              26.83100000   33.90300000   21.58400000
 O(PDBName=O5P,ResName=FMN,ResNum=500_A)              28.15300000   33.65500000   21.98100000
 P(PDBName=P,ResName=FMN,ResNum=500_A)                29.32800000   34.73800000   21.91800000
 O(PDBName=O1P,ResName=FMN,ResNum=500_A)              29.53800000   35.03500000   20.45000000
 O(PDBName=O2P,ResName=FMN,ResNum=500_A)              30.54800000   34.06100000   22.48600000
 O(PDBName=O3P,ResName=FMN,ResNum=500_A)              28.92000000   35.99200000   22.64000000
 H(PDBName=H3,ResName=FMN,ResNum=500_A)               24.36779383   32.80746440   12.89033614
 H(PDBName=H6,ResName=FMN,ResNum=500_A)               23.37980966   26.70050873   15.31707987
 H(PDBName=1H7M,ResName=FMN,ResNum=500_A)             24.36825038   24.57724659   18.17367838
 H(PDBName=2H7M,ResName=FMN,ResNum=500_A)             22.79927809   24.91362389   17.48212727
 H(PDBName=3H7M,ResName=FMN,ResNum=500_A)             24.15289059   24.54660023   16.43996917
 H(PDBName=1H8M,ResName=FMN,ResNum=500_A)             25.83264610   27.03457695   20.19601597
 H(PDBName=2H8M,ResName=FMN,ResNum=500_A)             24.33254876   26.14100440   20.13042085
 H(PDBName=3H8M,ResName=FMN,ResNum=500_A)             25.75030794   25.52930515   19.31258860
 H(PDBName=H9,ResName=FMN,ResNum=500_A)               25.49506034   29.05972870   19.08605395
 H(PDBName=1H1P,ResName=FMN,ResNum=500_A)             25.00147127   30.83092439   19.06972378
 H(PDBName=2H1P,ResName=FMN,ResNum=500_A)             24.85335801   32.40221413   18.09822442
 H(PDBName=H2P,ResName=FMN,ResNum=500_A)              27.07422833   32.42540160   17.67535655
 H(PDBName=H2P,ResName=FMN,ResNum=500_A)              28.40429786   30.57527414   18.11440216
 H(PDBName=H3P,ResName=FMN,ResNum=500_A)              28.24833666   32.19288662   19.81203794
 H(PDBName=H3P,ResName=FMN,ResNum=500_A)              27.07640579   31.34912150   21.56158607
 H(PDBName=H4P,ResName=FMN,ResNum=500_A)              25.57524606   33.47347939   20.00049048
 H(PDBName=H4P,ResName=FMN,ResNum=500_A)              26.99250671   35.33990887   19.54003508
 H(PDBName=1H5P,ResName=FMN,ResNum=500_A)             26.20982848   33.25249823   22.16356311
 H(PDBName=2H5P,ResName=FMN,ResNum=500_A)             26.68966119   34.96244893   21.63391305
 H                                                    31.42444360   34.36109232   22.23422387
 H                                                    29.58992081   36.58789739   22.98309243

